#### CIF created by Crystallographica 2 ####

data_CalciumSulfateVIHemihydrateBeta

_audit_creation_method                    'Crystallographica 2' 
_cell_angle_alpha                         90 
_cell_angle_beta                          90 
_cell_angle_gamma                         120 
_cell_formula_units_Z                     6 
_cell_length_a                            6.9268 
_cell_length_b                            6.9268 
_cell_length_c                            12.7565 
_cell_volume                              530.063 
_cgraph_comments                         'A new calcium sulfate hemi-hydrate
'
_cgraph_title                            'Calcium Sulfate(VI) Hemihydrate - Beta'
_chemical_formula_sum                    'Ca (S O4) (H2 O)0.5'
_symmetry_space_group_name_H-M           'P 31'
_symmetry_space_group_name_Hall          ' P 31'

loop_
        _symmetry_equiv_pos_as_xyz
        'x, y, z'
        '-y, x-y, z+1/3'
        '-x+y, -x, z-1/3'

loop_
        _atom_site_label
        _atom_site_type_symbol
        _atom_site_fract_x
        _atom_site_fract_y
        _atom_site_fract_z
        _atom_site_U_iso_or_equiv
        _atom_site_thermal_displace_type
        _atom_site_occupancy
        Ca1 Ca2+ 0.667 0.887 0 0.0227973 Uiso 1
        Ca2 Ca2+ 0.138 0.795 0.845 0.0227973 Uiso 1
        S1 S 0.669 0.889 0.261 0.0227973 Uiso 1
        O1 O2- 0.492 0.914 0.315 0.0227973 Uiso 1
        O2 O2- 0.572 0.727 0.175 0.0227973 Uiso 1
        O3 O2- 0.81 0.097 0.203 0.0227973 Uiso 1
        O4 O2- 0.818 0.847 0.326 0.0227973 Uiso 1
        S2 S 0.112 0.79 0.092 0.0227973 Uiso 1
        O5 O2- 0.916 0.729 0.025 0.0227973 Uiso 1
        O6 O2- 0.087 0.607 0.16 0.0227973 Uiso 1
        O7 O2- 0.277 0.816 0.011 0.0227973 Uiso 1
        O8 O2- 0.178 0.989 0.16 0.0227973 Uiso 1
        O9 O2- 0.561 0.356 0.195 0.0227973 Uiso 1
        H1 H 0.587 0.426 0.27 0.0227973 Uiso 1
        H2 H 0.6 0.238 0.219 0.0227973 Uiso 1

_eof

#### End of Crystallographic Information File ####
