#### CIF created by Crystallographica 2 ####

data_CalciumSulfateHemihydrate

_audit_creation_method                    'Crystallographica 2' 
_cell_angle_alpha                         90 
_cell_angle_beta                          133.655 
_cell_angle_gamma                         90 
_cell_formula_units_Z                     12 
_cell_length_a                            17.518 
_cell_length_b                            6.9291 
_cell_length_c                            12.0344 
_cell_volume                              1056.89 
_chemical_formula_sum                    'Ca (S O4) (H2 O)0.5'
_symmetry_space_group_name_H-M           'C 2'
_symmetry_space_group_name_Hall          ' C 2y'

loop_
        _symmetry_equiv_pos_as_xyz
        'x, y, z'
        'x+1/2, y+1/2, z'
        '-x, y, -z'
        '-x+1/2, y+1/2, -z'

loop_
        _atom_site_label
        _atom_site_type_symbol
        _atom_site_fract_x
        _atom_site_fract_y
        _atom_site_fract_z
        _atom_site_U_iso_or_equiv
        _atom_site_thermal_displace_type
        _atom_site_occupancy
        Ca1 Ca2+ 0.3349 0.2958 0.5712 0.0128 Uiso 1
        Ca2 Ca2+ 0.8361 0.341 0.055 0.0108 Uiso 1
        Ca3 Ca2+ 0 0.505 0.5 0.0118 Uiso 1
        Ca4 Ca2+ 0 0.0014 0 0.0118 Uiso 1
        S1 S 0.0862 0.312 0.31 0.0102 Uiso 1
        S2 S 0.2483 0.0029 0.247 0.0084 Uiso 1
        S3 S 0.5793 0.3338 0.8037 0.0096 Uiso 1
        O1 O2- 0.0134 0.3877 0.3186 0.0125 Uiso 1
        O2 O2- 0.0272 0.2603 0.1521 0.0164 Uiso 1
        O3 O2- 0.1466 0.1475 0.4151 0.0177 Uiso 1
        O4 O2- 0.1659 0.4619 0.3609 0.0141 Uiso 1
        O5 O2- 0.172 0.121 0.1076 0.0141 Uiso 1
        O6 O2- 0.183 0.3859 0.7602 0.0146 Uiso 1
        O7 O2- 0.3192 0.1274 0.3843 0.0146 Uiso 1
        O8 O2- 0.6651 0.1904 0.9036 0.014 Uiso 1
        O9 O2- 0.629 0.5187 0.8348 0.0197 Uiso 1
        O10 O2- 0.512 0.3333 0.8354 0.0165 Uiso 1
        O11 O2- 0.5122 0.2868 0.6418 0.0153 Uiso 1
        O12 O2- 0.3171 0.3751 0.7433 0.0144 Uiso 1
        O13 O2- 0 0.1599 0.5 0.0355 Uiso 1
        O14 O2- 0.8311 0.5093 0.8819 0.0667 Uiso 1
        H1 H 0.815 0.603 0.849 0.1 Uiso 1
        H2 H 0.802 0.472 0.801 0.1 Uiso 1
        H3 H 0.017 0.1 0.55 0.1 Uiso 1

