#### CIF created by Crystallographica 2 ####

data_CalciumSulfateVI

_audit_creation_method                    'Crystallographica 2' 
_cell_angle_alpha                         90 
_cell_angle_beta                          90 
_cell_angle_gamma                         90 
_cell_formula_units_Z                     4 
_cell_length_a                            6.24 
_cell_length_b                            6.98 
_cell_length_c                            6.97 
_cell_volume                              303.58 
_cgraph_comments                         'The crystal structure of anhydrite. Ca S O4
'
_cgraph_title                            'Calcium Sulfate(VI)'
_chemical_formula_sum                    'Ca (S O4)'
_symmetry_space_group_name_H-M           'B b m m'
_symmetry_space_group_name_Hall          '-B 2 2b'

loop_
        _symmetry_equiv_pos_as_xyz
        'x, y, z'
        'x+1/2, y, z+1/2'
        '-x, -y, -z'
        '-x+1/2, -y, -z+1/2'
        '-x, -y, z'
        '-x+1/2, -y, z+1/2'
        'x, y, -z'
        'x+1/2, y, -z+1/2'
        'x, -y+1/2, -z'
        'x+1/2, -y+1/2, -z+1/2'
        '-x, y+1/2, z'
        '-x+1/2, y+1/2, z+1/2'
        '-x, y+1/2, -z'
        '-x+1/2, y+1/2, -z+1/2'
        'x, -y+1/2, z'
        'x+1/2, -y+1/2, z+1/2'

loop_
        _atom_site_label
        _atom_site_type_symbol
        _atom_site_fract_x
        _atom_site_fract_y
        _atom_site_fract_z
        _atom_site_U_iso_or_equiv
        _atom_site_thermal_displace_type
        _atom_site_occupancy
        Ca1 Ca2+ 0.65 0.25 0 0 Uiso 1
        S1 S 0.15 0.25 0 0 Uiso 1
        O1 O2- 0.31 0.06 0 0 Uiso 1
        O2 O2- 0.01 0.25 0.19 0 Uiso 1

_eof

#### End of Crystallographic Information File ####
