#### CIF created by Crystallographica 2 ####

data_CalciumSulfate

_audit_creation_method                    'Crystallographica 2' 
_cell_angle_alpha                         90 
_cell_angle_beta                          102.22 
_cell_angle_gamma                         90 
_cell_formula_units_Z                     4 
_cell_length_a                            6.3769 
_cell_length_b                            6.6439 
_cell_length_c                            6.1667 
_cell_volume                              255.348 
_cgraph_comments                         'Evidence for monazite-. barite-. and Ag Mn O4 (distorted 
     barite)-type structures of Ca S O4 at high pressure and 
     temperature
'
_cgraph_title                            'Calcium Sulfate'
_chemical_formula_sum                    'Ca S O4'
_symmetry_space_group_name_H-M           'P 21/c'
_symmetry_space_group_name_Hall          '-P 2yn'

loop_
        _symmetry_equiv_pos_as_xyz
        'x, y, z'
        '-x, -y, -z'
        '-x+1/2, y+1/2, -z+1/2'
        'x+1/2, -y+1/2, z+1/2'

loop_
        _atom_site_label
        _atom_site_type_symbol
        _atom_site_fract_x
        _atom_site_fract_y
        _atom_site_fract_z
        _atom_site_U_iso_or_equiv
        _atom_site_thermal_displace_type
        _atom_site_occupancy
        Ca1 Ca2+ 0.2685 0.1592 0.0981 0.01 Uiso 1
        S1 S 0.3036 0.1664 0.6278 0.01 Uiso 1
        O1 O2- 0.2488 0.0003 0.4401 0.025 Uiso 1
        O2 O2- 0.3573 0.348 0.4915 0.025 Uiso 1
        O3 O2- 0.4745 0.1197 0.7932 0.025 Uiso 1
        O4 O2- 0.1192 0.2202 0.711 0.025 Uiso 1

_eof

#### End of Crystallographic Information File ####
