#### CIF created by Crystallographica 2 ####

data_CalciumSulfateVIDihydrate

_audit_creation_method                    'Crystallographica 2' 
_cell_angle_alpha                         90 
_cell_angle_beta                          118.479 
_cell_angle_gamma                         90 
_cell_formula_units_Z                     4 
_cell_length_a                            5.675 
_cell_length_b                            15.1976 
_cell_length_c                            6.52291 
_cell_volume                              494.502 
_cgraph_comments                         'Structure and microstructure of gypsum and its relevance to 
     Rietveld quantitative phase analyses
'
_cgraph_title                            'Calcium Sulfate(VI) Dihydrate'
_chemical_formula_sum                    'Ca (S O4) (H2 O)2'
_symmetry_space_group_name_H-M           'C 2/c'
_symmetry_space_group_name_Hall          '-I 2yc'

loop_
        _symmetry_equiv_pos_as_xyz
        'x, y, z'
        'x+1/2, y+1/2, z+1/2'
        '-x, -y, -z'
        '-x+1/2, -y+1/2, -z+1/2'
        '-x, y, -z+1/2'
        '-x+1/2, y+1/2, -z'
        'x, -y, z+1/2'
        'x+1/2, -y+1/2, z'

loop_
        _atom_site_label
        _atom_site_type_symbol
        _atom_site_fract_x
        _atom_site_fract_y
        _atom_site_fract_z
        _atom_site_U_iso_or_equiv
        _atom_site_thermal_displace_type
        _atom_site_occupancy
        Ca1 Ca2+ 0.5 0.0796 0.25 0.0095 Uiso 1
        S1 S 0 0.0775 0.75 0.0101 Uiso 1
        O1 O2- 0.9631 0.1317 0.5478 0.0088 Uiso 1
        O2 O2- 0.7559 0.0216 0.6631 0.0092 Uiso 1
        O3 O2- 0.3796 0.1822 0.4592 0.0151 Uiso 1
        H1 H 0.25 0.1536 0.482 0.085 Uiso 1
        H2 H 0.409 0.2412 0.5 0.085 Uiso 1

_eof

#### End of Crystallographic Information File ####
