#### CIF created by Crystallographica 2 ####

data_CalciumSulfateVIHemihydrateBeta

_audit_creation_method                    'Crystallographica 2' 
_cell_angle_alpha                         90 
_cell_angle_beta                          90 
_cell_angle_gamma                         120 
_cell_formula_units_Z                     6 
_cell_length_a                            6.93145 
_cell_length_b                            6.93145 
_cell_length_c                            12.7362 
_cell_volume                              529.929 
_cgraph_comments                         'Formation and transformation of five different phases in 
     the (Ca S O4) - (H2 O) system: crystal structure of the 
     subhydrate beta-(Ca S O4) * 0.5(H2 O) and soluble anhydrite 
     Ca S O4
'
_cgraph_title                            'Calcium Sulfate(VI) Hemihydrate - Beta'
_chemical_formula_sum                    '(Ca (S O4)) (H2 O)0.5'
_symmetry_space_group_name_H-M           'P 31'
_symmetry_space_group_name_Hall          ' P 31'

loop_
        _symmetry_equiv_pos_as_xyz
        'x, y, z'
        '-y, x-y, z+1/3'
        '-x+y, -x, z-1/3'

loop_
        _atom_site_label
        _atom_site_type_symbol
        _atom_site_fract_x
        _atom_site_fract_y
        _atom_site_fract_z
        _atom_site_U_iso_or_equiv
        _atom_site_thermal_displace_type
        _atom_site_occupancy
        Ca1 Ca2+ 0.662 0.881 0 0.0253303 Uiso 1
        Ca2 Ca2+ 0.119 0.781 0.832 0.0253303 Uiso 1
        S1 S 0.654 0.878 0.251 0.0253303 Uiso 1
        O1 O2- 0.536 0.996 0.304 0.0253303 Uiso 1
        O2 O2- 0.586 0.665 0.193 0.0253303 Uiso 1
        O3 O2- 0.833 0.057 0.18 0.0253303 Uiso 1
        O4 O2- 0.785 0.848 0.331 0.0253303 Uiso 1
        S2 S 0.123 0.778 0.077 0.0253303 Uiso 1
        O5 O2- 0.949 0.793 0.011 0.0253303 Uiso 1
        O6 O2- 0.02 0.57 0.154 0.0253303 Uiso 1
        O7 O2- 0.335 0.912 0.009 0.0253303 Uiso 1
        O8 O2- 0.157 0.931 0.168 0.0253303 Uiso 1
        O9 O2- 0.57 0.327 0.151 0.0253303 Uiso 1

_eof

#### End of Crystallographic Information File ####
