#### CIF created by Crystallographica 2 ####

data_CalciumSulfateVIDihydrate

_audit_creation_method                    'Crystallographica 2' 
_cell_angle_alpha                         90 
_cell_angle_beta                          118.48 
_cell_angle_gamma                         90 
_cell_formula_units_Z                     4 
_cell_length_a                            5.6929 
_cell_length_b                            15.245 
_cell_length_c                            6.544 
_cell_volume                              499.212 
_cgraph_comments                         'Arsenate incorporation in gypsum probed by neutron. X-ray 
     scattering and density functional theory modeling
'
_cgraph_title                            'Calcium Sulfate(VI) Dihydrate'
_chemical_formula_sum                    'Ca (S O4) (H2 O)2'
_symmetry_space_group_name_H-M           'C 2/c'
_symmetry_space_group_name_Hall          '-C 2yc'

loop_
        _symmetry_equiv_pos_as_xyz
        'x, y, z'
        'x+1/2, y+1/2, z'
        '-x, -y, -z'
        '-x+1/2, -y+1/2, -z'
        '-x, y, -z+1/2'
        '-x+1/2, y+1/2, -z+1/2'
        'x, -y, z+1/2'
        'x+1/2, -y+1/2, z+1/2'

loop_
        _atom_site_label
        _atom_site_type_symbol
        _atom_site_fract_x
        _atom_site_fract_y
        _atom_site_fract_z
        _atom_site_U_iso_or_equiv
        _atom_site_thermal_displace_type
        _atom_site_occupancy
        Ca1 Ca2+ 0.5 0.08 0.25 0.0034 Uiso 1
        S1 S 0 0.0774 0.75 0.0021 Uiso 1
        O1 O2- 0.963 0.1333 0.55 0.0104 Uiso 1
        O2 O2- 0.759 0.0217 0.666 0.0085 Uiso 1
        O3 O2- 0.375 0.1833 0.457 0.0133 Uiso 1
        H1 H 0.247 0.165 0.509 0.02 Uiso 1
        H2 H 0.399 0.242 0.491 0.022 Uiso 1

_eof

#### End of Crystallographic Information File ####
