#### CIF created by Crystallographica 2 ####

data_CalciumSulfateVIDihydrate

_audit_creation_method                    'Crystallographica 2' 
_cell_angle_alpha                         90 
_cell_angle_beta                          115.38 
_cell_angle_gamma                         90 
_cell_formula_units_Z                     4 
_cell_length_a                            6.162 
_cell_length_b                            14.965 
_cell_length_c                            5.58 
_cell_volume                              464.894 
_cgraph_comments                         'High-pressure behaviour of gypsum: a single-crystal X-ray 
     study
'
_cgraph_title                            'Calcium Sulfate(VI) Dihydrate'
_chemical_formula_sum                    'Ca (S O4) (H2 O)2'
_symmetry_space_group_name_H-M           'C 2/c'
_symmetry_space_group_name_Hall          '-C 2yc'

loop_
        _symmetry_equiv_pos_as_xyz
        'x, y, z'
        'x+1/2, y+1/2, z'
        '-x, -y, -z'
        '-x+1/2, -y+1/2, -z'
        '-x, y, -z+1/2'
        '-x+1/2, y+1/2, -z+1/2'
        'x, -y, z+1/2'
        'x+1/2, -y+1/2, z+1/2'

loop_
        _atom_site_label
        _atom_site_type_symbol
        _atom_site_fract_x
        _atom_site_fract_y
        _atom_site_fract_z
        _atom_site_U_iso_or_equiv
        _atom_site_thermal_displace_type
        _atom_site_occupancy
        S1 S 0 0.3266 0.75 0.008 Uiso 1
        Ca1 Ca2+ 0 0.1679 0.25 0.01 Uiso 1
        O1 O2- 0.088 0.27 0.59 0.012 Uiso 1
        O2 O2- 0.205 0.386 0.92 0.01 Uiso 1
        O3 O2- 0.778 0.062 0.922 0.018 Uiso 1

_eof

#### End of Crystallographic Information File ####
