#### CIF created by Crystallographica 2 ####

data_CalciumSulfateDihydrateIi

_audit_creation_method                    'Crystallographica 2' 
_cell_angle_alpha                         90 
_cell_angle_beta                          90 
_cell_angle_gamma                         90 
_cell_formula_units_Z                     4 
_cell_length_a                            5.865 
_cell_length_b                            15.045 
_cell_length_c                            5.478 
_cell_volume                              483.373 
_cgraph_comments                         'The crystal structure of gypsum-II determined by single-
     crystal synchrotron X-ray diffraction data
'
_cgraph_title                            'Calcium Sulfate Dihydrate - Ii'
_chemical_formula_sum                    'Ca (S O4) (H2 O)2'
_symmetry_space_group_name_H-M           'P 21/c'
_symmetry_space_group_name_Hall          '-P 2yn'

loop_
        _symmetry_equiv_pos_as_xyz
        'x, y, z'
        '-x, -y, -z'
        '-x+1/2, y+1/2, -z+1/2'
        'x+1/2, -y+1/2, z+1/2'

loop_
        _atom_site_label
        _atom_site_type_symbol
        _atom_site_fract_x
        _atom_site_fract_y
        _atom_site_fract_z
        _atom_site_U_iso_or_equiv
        _atom_site_thermal_displace_type
        _atom_site_occupancy
        Ca1 Ca2+ 0 0.1712 0.25 0.0398 Uiso 1
        S1 S 0 0.3196 0.7498 0.0401 Uiso 1
        O1 O2- 0.0831 0.2651 0.5892 0.0386 Uiso 1
        O2 O2- 0.5961 0.7717 0.5914 0.0387 Uiso 1
        O3 O2- 0.1965 0.3805 0.9016 0.0389 Uiso 1
        O4 O2- 0.6897 0.8805 0.9085 0.0391 Uiso 1
        O5 O2- 0.81 0.0639 0.923 0.0409 Uiso 1
        O6 O2- 0.31 0.5584 0.9245 0.0416 Uiso 1

_eof

#### End of Crystallographic Information File ####
