#### CIF created by Crystallographica 2 ####

data_CalciumSulfateDihydrateIi

_audit_creation_method                    'Crystallographica 2' 
_cell_angle_alpha                         90 
_cell_angle_beta                          90 
_cell_angle_gamma                         90 
_cell_formula_units_Z                     4 
_cell_length_a                            5.776 
_cell_length_b                            15.017 
_cell_length_c                            5.473 
_cell_volume                              474.718 
_cgraph_comments                         'The crystal structure of gypsum-II determined by single-
     crystal synchrotron X-ray diffraction data
'
_cgraph_title                            'Calcium Sulfate Dihydrate - Ii'
_chemical_formula_sum                    'Ca (S O4) (H2 O)2'
_symmetry_space_group_name_H-M           'P 21/c'
_symmetry_space_group_name_Hall          '-P 2yn'

loop_
        _symmetry_equiv_pos_as_xyz
        'x, y, z'
        '-x, -y, -z'
        '-x+1/2, y+1/2, -z+1/2'
        'x+1/2, -y+1/2, z+1/2'

loop_
        _atom_site_label
        _atom_site_type_symbol
        _atom_site_fract_x
        _atom_site_fract_y
        _atom_site_fract_z
        _atom_site_U_iso_or_equiv
        _atom_site_thermal_displace_type
        _atom_site_occupancy
        Ca1 Ca2+ 0 0.1712 0.251 0.0399 Uiso 1
        S1 S 0 0.3184 0.7495 0.0407 Uiso 1
        O1 O2- 0.083 0.2652 0.5893 0.025 Uiso 1
        O2 O2- 0.5901 0.7719 0.5916 0.0366 Uiso 1
        O3 O2- 0.1962 0.3808 0.9015 0.027 Uiso 1
        O4 O2- 0.6894 0.8788 0.9103 0.0263 Uiso 1
        O5 O2- 0.8104 0.0644 0.9231 0.0305 Uiso 1
        O6 O2- 0.31 0.5586 0.9244 0.0311 Uiso 1

_eof

#### End of Crystallographic Information File ####
