#### CIF created by Crystallographica 2 ####

data_CalciumSulfateVI

_audit_creation_method                    'Crystallographica 2' 
_cell_angle_alpha                         90 
_cell_angle_beta                          90 
_cell_angle_gamma                         90 
_cell_formula_units_Z                     4 
_cell_length_a                            7.006 
_cell_length_b                            6.998 
_cell_length_c                            6.245 
_cell_volume                              306.18 
_cgraph_comments                         'Charge density in anhydrite. Ca S O4. from X-ray and 
     neutron diffraction measurements
'
_cgraph_title                            'Calcium Sulfate(VI)'
_chemical_formula_sum                    'Ca (S O4)'
_symmetry_space_group_name_H-M           'A m m a'
_symmetry_space_group_name_Hall          '-A 2a 2a'

loop_
        _symmetry_equiv_pos_as_xyz
        'x, y, z'
        'x, y+1/2, z+1/2'
        '-x, -y, -z'
        '-x, -y+1/2, -z+1/2'
        '-x+1/2, -y, z'
        '-x+1/2, -y+1/2, z+1/2'
        'x+1/2, y, -z'
        'x+1/2, y+1/2, -z+1/2'
        'x+1/2, -y, -z'
        'x+1/2, -y+1/2, -z+1/2'
        '-x+1/2, y, z'
        '-x+1/2, y+1/2, z+1/2'
        '-x, y, -z'
        '-x, y+1/2, -z+1/2'
        'x, -y, z'
        'x, -y+1/2, z+1/2'

loop_
        _atom_site_label
        _atom_site_type_symbol
        _atom_site_fract_x
        _atom_site_fract_y
        _atom_site_fract_z
        _atom_site_U_iso_or_equiv
        _atom_site_thermal_displace_type
        _atom_site_occupancy
        Ca1 Ca2+ 0.75 0 0.3476 0 Uani 1
        S1 S 0.25 0 0.1557 0 Uani 1
        O1 O2- 0.25 0.1695 0.016 0 Uani 1
        O2 O2- 0.082 0 0.2973 0 Uani 1

loop_
        _atom_site_aniso_label
        _atom_site_aniso_U_11
        _atom_site_aniso_U_22
        _atom_site_aniso_U_33
        _atom_site_aniso_U_12
        _atom_site_aniso_U_13
        _atom_site_aniso_U_23
        Ca1 0.0068 0.0095 0.0068 0 0 0
        S1 0.0059 0.0069 0.0047 0 0 0
        O1 0.0178 0.0084 0.009 0 0 0.0024
        O2 0.0064 0.0173 0.0091 0 0.0015 0

_eof

#### End of Crystallographic Information File ####
