#### CIF created by Crystallographica 2 ####

data_CalciumSulfateDihydrate

_audit_creation_method                    'Crystallographica 2' 
_cell_angle_alpha                         90 
_cell_angle_beta                          118.43 
_cell_angle_gamma                         90 
_cell_formula_units_Z                     4 
_cell_length_a                            5.679 
_cell_length_b                            15.202 
_cell_length_c                            6.522 
_cell_volume                              495.153 
_cgraph_comments                         'Low-temperature dehydration of gypsum single crystals
'
_cgraph_title                            'Calcium Sulfate Dihydrate'
_chemical_formula_sum                    'Ca (S O4) (H2 O)2'
_symmetry_space_group_name_H-M           'C 2/c'
_symmetry_space_group_name_Hall          '-I 2yc'

loop_
        _symmetry_equiv_pos_as_xyz
        'x, y, z'
        'x+1/2, y+1/2, z+1/2'
        '-x, -y, -z'
        '-x+1/2, -y+1/2, -z+1/2'
        '-x, y, -z+1/2'
        '-x+1/2, y+1/2, -z'
        'x, -y, z+1/2'
        'x+1/2, -y+1/2, z'

loop_
        _atom_site_label
        _atom_site_type_symbol
        _atom_site_fract_x
        _atom_site_fract_y
        _atom_site_fract_z
        _atom_site_U_iso_or_equiv
        _atom_site_thermal_displace_type
        _atom_site_occupancy
        Ca1 Ca2+ 0.5 0.0796 0.25 0 Uiso 1
        S1 S 0 0.077 0.75 0 Uiso 1
        O1 O2- 0.9632 0.1319 0.5504 0 Uiso 1
        O2 O2- 0.7582 0.0222 0.667 0 Uiso 1
        O3 O2- 0.3796 0.1821 0.4588 0 Uiso 1
        H1 H 0.2511 0.1615 0.5037 0 Uiso 1
        H2 H 0.4045 0.2427 0.4921 0 Uiso 1

_eof

#### End of Crystallographic Information File ####
