#### CIF created by Crystallographica 2 ####

data_CalciumSulfateHydrate

_audit_creation_method                    'Crystallographica 2' 
_cell_angle_alpha                         90 
_cell_angle_beta                          90 
_cell_angle_gamma                         120 
_cell_formula_units_Z                     24 
_cell_length_a                            13.869 
_cell_length_b                            13.869 
_cell_length_c                            12.7189 
_cell_volume                              2118.7 
_cgraph_comments                         'Water channel structure of bassanite at high air humidity: 
     crystal structure of Ca S O4 * (H2 O)0.625
'
_cgraph_title                            'Calcium Sulfate Hydrate (1/1/0.625)'
_chemical_formula_sum                    'Ca (S O4) (H2 O)0.625'
_symmetry_space_group_name_H-M           'P 32 2 1'
_symmetry_space_group_name_Hall          ' P 32 2"'

loop_
        _symmetry_equiv_pos_as_xyz
        'x, y, z'
        '-y, x-y, z-1/3'
        '-x+y, -x, z+1/3'
        'x-y, -y, -z+1/3'
        '-x, -x+y, -z-1/3'
        'y, x, -z'

loop_
        _atom_site_label
        _atom_site_type_symbol
        _atom_site_fract_x
        _atom_site_fract_y
        _atom_site_fract_z
        _atom_site_U_iso_or_equiv
        _atom_site_thermal_displace_type
        _atom_site_occupancy
        S1 S 0.5018 0.7738 0.0824 0.0099 Uiso 1
        S2 S 0.7741 0.996 0.4147 0.0103 Uiso 1
        S3 S 0.727 0.721 0.7534 0.0096 Uiso 1
        S4 S 0.2174 0.7217 0.2421 0.01 Uiso 1
        Ca1 Ca2+ 0.769 1 0.1667 0.0126 Uiso 1
        Ca2 Ca2+ 0.4902 0.7761 0.3308 0.0142 Uiso 1
        Ca3 Ca2+ 0.7426 0.7426 0 0.0122 Uiso 1
        Ca4 Ca2+ 0.7142 0.7142 0.5 0.0148 Uiso 1
        Ca5 Ca2+ 0.5025 0.7719 0.8354 0.0135 Uiso 1
        Ca6 Ca2+ 0.7835 1 0.6667 0.0123 Uiso 1
        O1 O2- 0.6334 0.6938 0.8264 0.016 Uiso 1
        O2 O2- 0.1951 0.6233 0.1778 0.0166 Uiso 1
        O3 O2- 0.4352 0.7974 0.0072 0.0169 Uiso 1
        O4 O2- 0.7339 0.7999 0.6728 0.0169 Uiso 1
        O5 O2- 0.5663 0.7355 0.0209 0.0206 Uiso 1
        O6 O2- 0.868 0.0603 0.3412 0.0164 Uiso 1
        O7 O2- 0.8289 0.7705 0.8185 0.0175 Uiso 1
        O8 O2- 0.7927 0.9169 0.4753 0.018 Uiso 1
        O9 O2- 0.4298 0.6907 0.1594 0.0151 Uiso 1
        O10 O2- 0.2966 0.7407 0.3266 0.0167 Uiso 1
        O11 O2- 0.7664 0.072 0.4902 0.0163 Uiso 1
        O12 O2- 0.6738 0.9397 0.3496 0.0178 Uiso 1
        O13 O2- 0.5778 0.8753 0.1423 0.0187 Uiso 1
        O14 O2- 0.1128 0.7027 0.2901 0.02 Uiso 1
        O15 O2- 0.2623 0.8162 0.1692 0.0171 Uiso 1
        O16 O2- 0.5018 0.9431 0.8112 0.0336 Uiso 1
        O17 O2- 0.9508 1 0.6667 0.056 Uiso 1
        O18 O2- 0.7094 0.6206 0.6991 0.0199 Uiso 1
        O19 O2- 0.4803 0.9522 0.2989 0.0663 Uiso 1
        H1 H 0.453 0.985 0.258 0.099 Uiso 1
        H2 H 0.545 0.982 0.277 0.099 Uiso 1
        H3 H 0.564 0.993 0.795 0.099 Uiso 1
        H4 H 0.457 0.966 0.819 0.099 Uiso 1
        H5 H 0.005 0.06 0.678 0.099 Uiso 1

_eof

#### End of Crystallographic Information File ####
