#### CIF created by Crystallographica 2 ####

data_CalciumSulfateIVTetrahydrate

_audit_creation_method                    'Crystallographica 2' 
_cell_angle_alpha                         90 
_cell_angle_beta                          124.34 
_cell_angle_gamma                         90 
_cell_formula_units_Z                     12 
_cell_length_a                            19.384 
_cell_length_b                            11.192 
_cell_length_c                            11.449 
_cell_volume                              2050.89 
_cgraph_comments                         'The crystal structure of calcium sulfite tetrahydrate
'
_cgraph_title                            'Calcium Sulfate(IV) Tetrahydrate'
_chemical_formula_sum                    'Ca (S O3) (H2 O)4'
_symmetry_space_group_name_H-M           'C 2/c'
_symmetry_space_group_name_Hall          '-C 2yc'

loop_
        _symmetry_equiv_pos_as_xyz
        'x, y, z'
        'x+1/2, y+1/2, z'
        '-x, -y, -z'
        '-x+1/2, -y+1/2, -z'
        '-x, y, -z+1/2'
        '-x+1/2, y+1/2, -z+1/2'
        'x, -y, z+1/2'
        'x+1/2, -y+1/2, z+1/2'

loop_
        _atom_site_label
        _atom_site_type_symbol
        _atom_site_fract_x
        _atom_site_fract_y
        _atom_site_fract_z
        _atom_site_U_iso_or_equiv
        _atom_site_thermal_displace_type
        _atom_site_occupancy
        Ca1 Ca2+ 0 0.044 0.25 0.0101321 Uiso 1
        Ca2 Ca2+ 0.1031 0.353 0.2502 0.0088656 Uiso 1
        S1 S 0.0771 0.25 0.4813 0.00126651 Uiso 1
        S2 S 0.25 0.25 0 0.0379954 Uiso 1
        O1 O2- 0.9919 0.1885 0.4112 0.0101321 Uiso 1
        O2 O2- 0.1152 0.189 0.4116 0.0113986 Uiso 1
        O3 O2- 0.0533 0.3725 0.4101 0.0101321 Uiso 1
        O4 O2- 0.2002 0.2492 0.8481 0.0341959 Uiso 0.5
        O5 O2- 0.2334 0.1597 0.0688 0.08359 Uiso 0.3333
        O6 O2- 0.3384 0.2376 0.0673 0.0569932 Uiso 0.3333
        O7 O2- 0.2501 0.3583 0.0681 0.0658588 Uiso 0.3333
        O8 O2- 0.0694 0.0891 0.946 0.0354624 Uiso 1
        O9 O2- 0.1138 0.0288 0.7346 0.0240638 Uiso 1
        O10 O2- 0.0745 0.4321 0.7336 0.0240638 Uiso 1
        O11 O2- 0.1056 0.4126 0.0534 0.0493941 Uiso 1
        O12 O2- 0.2042 0.2114 0.2653 0.0240638 Uiso 1
        O13 O2- 0.2674 0.0749 0.5529 0.0151982 Uiso 1

_eof

#### End of Crystallographic Information File ####
