#### CIF created by Crystallographica 2 ####

data_CalciumSulfateVIGamma

_audit_creation_method                    'Crystallographica 2' 
_cell_angle_alpha                         90 
_cell_angle_beta                          90 
_cell_angle_gamma                         90 
_cell_formula_units_Z                     6 
_cell_length_a                            12.0777 
_cell_length_b                            6.9723 
_cell_length_c                            6.304 
_cell_volume                              530.856 
_cgraph_comments                         'Investigation of the crystal structure of gamma-Ca S O4. Ca 
     S O4 . 0.5(H2 O). and Ca S O4 . 0.6(H2 O) by powder 
     diffraction methods
'
_cgraph_title                            'Calcium Sulfate(VI) - Gamma'
_chemical_formula_sum                    'Ca (S O4)'
_symmetry_space_group_name_H-M           'C 2 2 2'
_symmetry_space_group_name_Hall          ' C 2 2'

loop_
        _symmetry_equiv_pos_as_xyz
        'x, y, z'
        'x+1/2, y+1/2, z'
        '-x, -y, z'
        '-x+1/2, -y+1/2, z'
        'x, -y, -z'
        'x+1/2, -y+1/2, -z'
        '-x, y, -z'
        '-x+1/2, y+1/2, -z'

loop_
        _atom_site_label
        _atom_site_type_symbol
        _atom_site_fract_x
        _atom_site_fract_y
        _atom_site_fract_z
        _atom_site_U_iso_or_equiv
        _atom_site_thermal_displace_type
        _atom_site_occupancy
        S1 S 0 0 0.5 0.00924556 Uiso 1
        S2 S 0.25 0.25 0.1648 0.00709248 Uiso 1
        Ca1 Ca2+ 0.25 0.25 0.6664 0.0202642 Uiso 1
        Ca2 Ca2+ 0 0 0 0.00785239 Uiso 1
        O1 O2- 0.0713 0.8842 0.3548 0.00873895 Uiso 1
        O2 O2- 0.2267 0.4152 0.3049 0.00227973 Uiso 1
        O3 O2- 0.3494 0.274 0.0292 0.0127918 Uiso 1

_eof

#### End of Crystallographic Information File ####
